Version 4
SHEET 1 920 680
WIRE 16 -176 16 -224
WIRE -272 -64 -272 -128
WIRE -272 80 -272 16
WIRE 112 96 80 96
WIRE 400 96 400 32
WIRE 400 96 336 96
WIRE 576 96 576 16
WIRE 576 96 400 96
WIRE 640 96 576 96
WIRE 800 96 720 96
WIRE 112 160 80 160
WIRE 800 160 800 96
WIRE 800 160 336 160
WIRE -272 224 -272 144
WIRE 112 224 -272 224
WIRE 704 224 336 224
WIRE -272 288 -272 224
WIRE 112 288 48 288
WIRE 800 304 800 160
WIRE 704 416 704 224
WIRE 752 416 704 416
WIRE 800 416 800 384
WIRE 800 416 752 416
WIRE -272 464 -272 352
WIRE 752 464 752 416
WIRE 800 560 800 416
FLAG 80 160 trg-thr
FLAG 576 -48 0
FLAG 80 96 0
FLAG 752 464 trg-thr
FLAG 800 624 0
FLAG -272 544 0
FLAG 48 288 vcc
FLAG 400 32 vcc
FLAG -272 -128 vcc
FLAG 16 -304 0
FLAG 16 -176 vcc
SYMBOL Misc\\NE555 224 192 R0
SYMATTR InstName U1
SYMBOL polcap 592 16 R180
WINDOW 0 24 57 Left 2
WINDOW 3 24 8 Left 2
SYMATTR InstName C1
SYMATTR Value .1
SYMBOL res 736 80 R90
WINDOW 0 0 56 VBottom 2
WINDOW 3 32 56 VTop 2
SYMATTR InstName R_A
SYMATTR Value 4k
SYMBOL res 784 288 R0
SYMATTR InstName R_B
SYMATTR Value 70k
SYMBOL polcap 784 560 R0
SYMATTR InstName C2
SYMATTR Value 5µ
SYMBOL LED -288 288 R0
SYMATTR InstName D1
SYMBOL res -288 -80 R0
SYMATTR InstName R3
SYMATTR Value 470
SYMBOL res -288 448 R0
SYMATTR InstName R4
SYMATTR Value 470
SYMBOL LED -288 80 R0
SYMATTR InstName D2
SYMBOL voltage 16 -208 R180
WINDOW 0 24 96 Left 2
WINDOW 3 24 16 Left 2
SYMATTR InstName baby_Battery
SYMATTR Value 3.3
TEXT -292 648 Left 2 !.tran 0 10 0 1
