Version 4
SHEET 1 1380 680
WIRE 176 -304 144 -304
WIRE 176 -288 176 -304
WIRE 144 -256 144 -304
WIRE 528 -256 528 -288
WIRE 528 -256 416 -256
WIRE 640 -256 528 -256
WIRE 640 -192 640 -256
WIRE 144 -112 144 -176
WIRE 416 -32 416 -256
WIRE 144 16 144 -32
WIRE 352 16 144 16
WIRE 640 16 640 -112
WIRE 640 16 576 16
WIRE 512 64 416 64
FLAG 176 -288 0
FLAG 528 -368 0
FLAG 576 112 0
SYMBOL voltage 144 -160 R180
WINDOW 0 24 96 Left 2
WINDOW 3 24 16 Left 2
WINDOW 123 0 0 Left 0
WINDOW 39 0 0 Left 0
SYMATTR InstName V1
SYMATTR Value 5
SYMBOL res 128 -128 R0
WINDOW 3 36 68 Left 2
SYMATTR InstName R1
SYMATTR Value {R}
SYMBOL npn 352 -32 R0
SYMATTR InstName Q1
SYMBOL voltage 528 -272 R180
WINDOW 0 24 96 Left 2
WINDOW 3 24 16 Left 2
SYMATTR InstName V2
SYMATTR Value 12
SYMBOL res 624 -208 R0
SYMATTR InstName heater
SYMATTR Value 2.4
SYMBOL npn 512 16 R0
SYMATTR InstName Q2
TEXT 832 -168 Left 2 !.step param R .1 1 .1\n.op
